CM --- NEC2 Input File created or edited by xnec2c 3.5 ---
CM  Yagi for 145 MHz
CE --- End Comments ---
GW     1    25  -3.93500E-01  5.14900E-01  0.00000E+00 -3.93500E-01 -5.14900E-01  0.00000E+00  5.00000E-03
GW     2    25   0.00000E+00  4.55500E-01  0.00000E+00  0.00000E+00 -4.55500E-01  0.00000E+00  5.00000E-03
GW     3    25   5.17000E-01  3.66000E-01  0.00000E+00  5.17000E-01 -3.66000E-01  0.00000E+00  5.00000E-03
GW     4    25  -9.50000E-02  1.65000E-01  0.00000E+00 -9.50000E-02 -1.65000E-01  0.00000E+00  5.00000E-03
GW     5    25   4.60000E-02  1.57800E-01  0.00000E+00  4.60000E-02 -1.57800E-01  0.00000E+00  5.00000E-03
GW     6    25   1.52000E-01  1.46900E-01  0.00000E+00  1.52000E-01 -1.46900E-01  0.00000E+00  5.00000E-03
GW     7    25   2.85000E-01  1.43800E-01  0.00000E+00  2.85000E-01 -1.43800E-01  0.00000E+00  5.00000E-03
GW     8    25   4.58000E-01  1.37500E-01  0.00000E+00  4.58000E-01 -1.37500E-01  0.00000E+00  5.00000E-03
GE     0     0   0.00000E+00  0.00000E+00  0.00000E+00  0.00000E+00  0.00000E+00  0.00000E+00  0.00000E+00
FR     0   500     0     0  1.25000E+02  1.55311E+00  9.00001E+02  0.00000E+00  0.00000E+00  0.00000E+00
EX     0     2    13      0  1.00000E+00  0.00000E+00  0.00000E+00  0.00000E+00  0.00000E+00  0.00000E+00
LD     5     0     0      0  3.70000E+07  0.00000E+00  0.00000E+00  0.00000E+00  0.00000E+00  0.00000E+00
NH     0     0     0      0  0.00000E+00  0.00000E+00  0.00000E+00  0.00000E+00  0.00000E+00  0.00000E+00
NE     0    20    15      1 -1.40000E+00 -1.40000E+00  5.00000E-02  2.00000E-01  2.00000E-01  0.00000E+00
RP     0    37    73   1000  0.00000E+00  0.00000E+00  5.00000E+00  5.00000E+00  0.00000E+00  0.00000E+00
EN     0     0     0      0  0.00000E+00  0.00000E+00  0.00000E+00  0.00000E+00  0.00000E+00  0.00000E+00
